Spectre (R) Circuit Simulator
Version 17.1.0.238.isr4 64bit -- 28 Apr 2018
Simulating `input.scs' on client2 at 1:00:52 PM, Fri Feb 14, 2020 (process id: 5678).
H = mpsImport( "spectre" "ipi" "v0.0" ?session "spectre0_3159_1" )
H->sclSetResultDir( "../psf" )
H->sclRun( "all" )
H->sclSetResultDir( "../psf" )
H->sclRun( "all" )
sclCkt0x8fcd880 = H->sclGetCircuit(  "" )
H->sclQuit(  )
