
Spectre (R) Circuit Simulator
Version 17.1.0.238.isr4 64bit -- 28 Apr 2018
Copyright (C) 1989-2018 Cadence Design Systems, Inc. All rights reserved worldwide. Cadence and Spectre are registered trademarks of Cadence Design Systems, Inc. All others are the property of their respective holders.

Includes RSA BSAFE(R) Cryptographic or Security Protocol Software from RSA Security, Inc.

User: root   Host: client2   HostID: 7F0100   PID: 12579
Memory  available: 176.1976 MB  physical: 3.7820 GB
Linux   : Red Hat Enterprise Linux Server release 7.5 (Maipo)
CPU Type: Intel(R) Core(TM) i7-6700 CPU @ 3.40GHz
        Socket: Processors [Frequency] (Hyperthreaded Processor)
        0:       0 [3800.7] (  4 ),  1 [3993.1] (  5 ),  2 [3772.9] (  6 )
                 3 [3899.1] (  7 )
        
System load averages (1min, 5min, 15min) : 4.0 %, 3.6 %, 3.2 %
Hyperthreading is enabled


Simulating `input.scs' on client2 at 7:12:12 PM, Mon Feb 17, 2020 (process id: 12579).
Current working directory: /home/user/say_btp2/inverter/inv/inv/spectre/av_extracted/netlist
Command line:
    /home/install/SPECTRE171/tools/bin/spectre -64 input.scs +escchars  \
        +log ../psf/spectre.out +inter=mpsc  \
        +mpssession=spectre0_14745_10 -format psfxl -raw ../psf  \
        +lqtimeout 900 -maxw 5 -maxn 5
spectre pid = 12579

Loading /home/install/SPECTRE171/tools.lnx86/cmi/lib/64bit/5.0/libinfineon_sh.so ...
Loading /home/install/SPECTRE171/tools.lnx86/cmi/lib/64bit/5.0/libphilips_o_sh.so ...
Loading /home/install/SPECTRE171/tools.lnx86/cmi/lib/64bit/5.0/libphilips_sh.so ...
Loading /home/install/SPECTRE171/tools.lnx86/cmi/lib/64bit/5.0/libsparam_sh.so ...
Loading /home/install/SPECTRE171/tools.lnx86/cmi/lib/64bit/5.0/libstmodels_sh.so ...
Reading file:  /home/user/say_btp2/inverter/inv/inv/spectre/av_extracted/netlist/input.scs
Reading file:  /home/install/SPECTRE171/tools.lnx86/spectre/etc/configs/mapsubckt.cfg
Reading file:  /home/install/SPECTRE171/tools.lnx86/spectre/etc/configs/spectre.cfg
Reading file:  /home/install/FOUNDRY/analog/45nm/models/spectre/gpdk045.scs
Reading file:  /home/install/FOUNDRY/analog/45nm/models/spectre/gpdk045_mos.scs
Reading file:  /home/install/FOUNDRY/analog/45nm/models/spectre/gpdk045_diode.scs
Reading file:  /home/install/FOUNDRY/analog/45nm/models/spectre/gpdk045_bipolar.scs
Reading file:  /home/install/FOUNDRY/analog/45nm/models/spectre/gpdk045_mimcap.scs
Reading file:  /home/install/FOUNDRY/analog/45nm/models/spectre/gpdk045_moscap.scs
Reading file:  /home/install/FOUNDRY/analog/45nm/models/spectre/gpdk045_resistor.scs
Reading file:  /home/install/FOUNDRY/analog/45nm/models/spectre/gpdk045_inductor.scs
Reading file:  /home/user/say_btp2/inverter/inv/inv/spectre/av_extracted/netlist/_graphical_stimuli.scs
Time for NDB Parsing: CPU = 390.021 ms, elapsed = 449.782 ms.
Time accumulated: CPU = 404.031 ms, elapsed = 449.785 ms.
Peak resident memory used = 61.4 Mbytes.

Reading link:  /home/install/SPECTRE171/tools.lnx86/spectre/etc/ahdl/discipline.h
Reading file:  /home/install/SPECTRE171/tools.lnx86/spectre/etc/ahdl/disciplines.vams
Reading link:  /home/install/SPECTRE171/tools.lnx86/spectre/etc/ahdl/constants.h
Reading file:  /home/install/SPECTRE171/tools.lnx86/spectre/etc/ahdl/constants.vams
Existing shared object for module bsource_2b273e is up to date.
Installed compiled interface for bsource_2b273e.
Time for Elaboration: CPU = 16.554 ms, elapsed = 16.5548 ms.
Time accumulated: CPU = 420.691 ms, elapsed = 466.446 ms.
Peak resident memory used = 70 Mbytes.


Warning from spectre during hierarchy flattening.
    WARNING (SPECTRE-17101): The value 'psf' specified using the 'checklimitdest' option will no longer be supported in future releases.


Time for EDB Visiting: CPU = 808 us, elapsed = 808.001 us.
Time accumulated: CPU = 421.589 ms, elapsed = 467.343 ms.
Peak resident memory used = 70.8 Mbytes.


Global user options:
         psfversion = 1.1.0
            vabstol = 1e-06
            iabstol = 1e-12
               temp = 27
               gmin = 1e-12
             rforce = 1
           maxnotes = 5
           maxwarns = 5
             digits = 5
               cols = 80
             pivrel = 0.001
           sensfile = ../psf/sens.output
     checklimitdest = psf
               save = allpub
                pwr = all
             reltol = 0.001
               tnom = 27
             scalem = 1
              scale = 1

Scoped user options:

Circuit inventory:
              nodes 5
              bsim4 2     
     bsource_2b273e 2     
            vsource 3     

Analysis and control statement inventory:
               info 7     
               tran 1     

Output statements:
             .probe 0     
           .measure 0     
               save 0     

Time for parsing: CPU = 1.928 ms, elapsed = 60.8659 ms.
Time accumulated: CPU = 423.595 ms, elapsed = 528.287 ms.
Peak resident memory used = 72.1 Mbytes.

~~~~~~~~~~~~~~~~~~~~~~
Pre-Simulation Summary
~~~~~~~~~~~~~~~~~~~~~~
~~~~~~~~~~~~~~~~~~~~~~
Entering remote command mode using MPSC service (spectre, ipi, v0.0, spectre0_14745_10, ).

Warning from spectre.
    WARNING (SPECTRE-16707): Only tran supports psfxl format, result of other analyses will be in psfbin format.


***********************************************
Transient Analysis `tran': time = (0 s -> 6 us)
***********************************************
DC simulation time: CPU = 311 us, elapsed = 311.136 us.

Opening the PSFXL file ../psf/tran.tran.tran ...
Important parameter values:
    start = 0 s
    outputstart = 0 s
    stop = 6 us
    step = 6 ns
    maxstep = 60 ns
    ic = all
    useprevic = no
    skipdc = no
    reltol = 100e-06
    abstol(V) = 1 uV
    abstol(I) = 1 pA
    temp = 27 C
    tnom = 27 C
    tempeffects = all
    errpreset = conservative
    method = gear2only
    lteratio = 10
    relref = alllocal
    cmin = 0 F
    gmin = 1 pS


Output and IC/nodeset summary:
                 save   2       (current)
                 save   5       (voltage)
                 others 7       

    tran: time = 150 ns       (2.5 %), step = 60 ns           (1 %)
    tran: time = 450 ns       (7.5 %), step = 60 ns           (1 %)
    tran: time = 750 ns      (12.5 %), step = 60 ns           (1 %)
    tran: time = 1.05 us     (17.5 %), step = 60 ns           (1 %)
    tran: time = 1.35 us     (22.5 %), step = 60 ns           (1 %)
    tran: time = 1.65 us     (27.5 %), step = 60 ns           (1 %)
    tran: time = 1.95 us     (32.5 %), step = 60 ns           (1 %)
    tran: time = 2.285 us    (38.1 %), step = 42.77 ns     (713 m%)
    tran: time = 2.585 us    (43.1 %), step = 60 ns           (1 %)
    tran: time = 2.885 us    (48.1 %), step = 60 ns           (1 %)
    tran: time = 3.163 us    (52.7 %), step = 37.27 ns     (621 m%)
    tran: time = 3.462 us    (57.7 %), step = 31.24 ns     (521 m%)
    tran: time = 3.762 us    (62.7 %), step = 60 ns           (1 %)
    tran: time = 4.062 us    (67.7 %), step = 60 ns           (1 %)
    tran: time = 4.362 us    (72.7 %), step = 60 ns           (1 %)
    tran: time = 4.662 us    (77.7 %), step = 60 ns           (1 %)
    tran: time = 4.962 us    (82.7 %), step = 60 ns           (1 %)
    tran: time = 5.262 us    (87.7 %), step = 60 ns           (1 %)
    tran: time = 5.562 us    (92.7 %), step = 60 ns           (1 %)
    tran: time = 5.862 us    (97.7 %), step = 60 ns           (1 %)
Number of accepted tran steps =             244

Maximum value achieved for any signal of each quantity: 
V: V(NM0:int_d) = 1 V
I: I(_vvdd!:p) = 156.8 nA

~~~~~~~~~~~~~~~~~~~~~~~~~~~~~~~~~
Post-Transient Simulation Summary
~~~~~~~~~~~~~~~~~~~~~~~~~~~~~~~~~
   -   To further speed up simulation, consider
          add ++aps on command line
   -   Non-default settings that could significantly slow down simulation
          errpreset = conservative, default moderate
~~~~~~~~~~~~~~~~~~~~~~~~~~~~~~~~~


During simulation, the CPU load for active processors is :
        Spectre  0 (66.7 %)      1 (9.5 %)       2 (4.7 %)       3 (12.3 %)
                 6 (4.6 %)       7 (1.6 %)      
        Other   
Initial condition solution time: CPU = 346 us, elapsed = 346.899 us.
Intrinsic tran analysis time:    CPU = 14.495 ms, elapsed = 53.0608 ms.
Total time required for tran analysis `tran': CPU = 16.16 ms, elapsed = 54.723 ms.
Time accumulated: CPU = 445.638 ms, elapsed = 671.688 ms.
Peak resident memory used = 74.6 Mbytes.

finalTimeOP: writing operating point information to rawfile.

Opening the PSF file ../psf/finalTimeOP.info ...
modelParameter: writing model parameter values to rawfile.

Opening the PSF file ../psf/modelParameter.info ...
element: writing instance parameter values to rawfile.

Opening the PSF file ../psf/element.info ...
outputParameter: writing output parameter values to rawfile.

Opening the PSF file ../psf/outputParameter.info ...
designParamVals: writing netlist parameters to rawfile.

Opening the PSFASCII file ../psf/designParamVals.info ...
primitives: writing primitives to rawfile.

Opening the PSFASCII file ../psf/primitives.info.primitives ...
subckts: writing subcircuits to rawfile.

Opening the PSFASCII file ../psf/subckts.info.subckts ...

Aggregate audit (7:12:38 PM, Mon Feb 17, 2020):
Time used: CPU = 477 ms, elapsed = 25.7 s, util. = 1.86%.
Time spent in licensing: elapsed = 43.7 ms.
Peak memory used = 76.1 Mbytes.
Simulation started at: 7:12:12 PM, Mon Feb 17, 2020, ended at: 7:12:38 PM, Mon Feb 17, 2020, with elapsed time (wall clock): 25.7 s.
spectre completes with 0 errors, 2 warnings, and 0 notices.
